*PARAMETROS
.include 32nm_HP.pm
* Declarando Fontes de tensão
Vvdd vdd gnd 1
* Declaração das fontes
Va a gnd PWL (0n 0 10n 0 10.01n 1 20n 1)
* Declarando o circuito
Mp1 vdd a inv vdd PMOS w=140n l=32n
Mn1 inv a gnd gnd NMOS w=70n l=32n
* Simulação Transiente de 20ns com passo de 0.1ns
.tran 0.1ns 20ns 
* Fim do Arquivo SPICE
.end